[
  "D:\\MyCode\\zama\\demo\\local-email.less",
  "D:\\MyCode\\zama\\demo\\payment.less",
  "D:\\MyCode\\zama\\demo\\global-admin.adoc",
  "D:\\MyCode\\zama\\demo\\demo-util.js",
  "D:\\MyCode\\zama\\demo\\message-registry-import.sass",
  "D:\\MyCode\\zama\\demo\\model-inventory",
  "D:\\MyCode\\zama\\demo\\model-inventory\\helpers-mutations-database.scss",
  "D:\\MyCode\\zama\\demo\\model-inventory\\config-factory-database.rst",
  "D:\\MyCode\\zama\\demo\\model-inventory\\responsive-styles.json",
  "D:\\MyCode\\zama\\demo\\model-inventory\\notification-adaptive-endpoint.jsx",
  "D:\\MyCode\\zama\\demo\\model-inventory\\routes-helpers-adaptive.py",
  "D:\\MyCode\\zama\\demo\\model-inventory\\constants-complex-pages",
  "D:\\MyCode\\zama\\demo\\model-inventory\\constants-complex-pages\\email.sol",
  "D:\\MyCode\\zama\\demo\\model-inventory\\constants-complex-pages\\styles-download.py",
  "D:\\MyCode\\zama\\demo\\model-inventory\\constants-complex-pages\\core-statistics-example.jsx",
  "D:\\MyCode\\zama\\demo\\statistics.env",
  "D:\\MyCode\\zama\\demo\\local.yml",
  "D:\\MyCode\\zama\\demo\\dist.jsx",
  "D:\\MyCode\\zama\\demo\\constants.toml",
  "D:\\MyCode\\zama\\demo\\frontend\\web\\src\\demo-environment.sol",
  "D:\\MyCode\\zama\\demo\\frontend\\web\\src\\lib-order.ini",
  "D:\\MyCode\\zama\\demo\\frontend\\web\\src\\demo",
  "D:\\MyCode\\zama\\demo\\frontend\\web\\src\\demo\\analytics-base.css",
  "D:\\MyCode\\zama\\demo\\frontend\\web\\src\\frontend-base.json",
  "D:\\MyCode\\zama\\demo\\frontend\\web\\src\\frontend-fragments-types.toml",
  "D:\\MyCode\\zama\\demo\\frontend\\web\\src\\endpoint-utils-dynamic.rst",
  "D:\\MyCode\\zama\\demo\\frontend\\web\\src\\import-subscriptions.ts",
  "D:\\MyCode\\zama\\demo\\frontend\\web\\src\\base-middleware.rs"
]